case30.py
from numpy import array
def case():
	ppc = {"version": '2'}
	ppc["baseMVA"] = 100.0
	ppc["bus"] = array([
		[1.0,    3.0, 0.0,      0.0,      0.0,    0.0,    1.0, 1.0,      0.0,      135.0,    1.0, 1.05,     0.95,     0.6, 10   ],
		[2.0,    2.0, 21.7,     12.7,     0.0,    0.0,    1.0, 1.0,      0.0,      135.0,    1.0, 1.1,      0.95,     0.6, 10   ],
		[3.0,    1.0, 2.4,      1.2,      0.0,    0.0,    1.0, 1.0,      0.0,      135.0,    1.0, 1.05,     0.95,     0.6, 10   ],
		[4.0,    1.0, 7.6,      1.6,      0.0,    0.0,    1.0, 1.0,      0.0,      135.0,    1.0, 1.05,     0.95,     0.6, 10   ],
		[5.0,    1.0, 0.0,      0.0,      0.0,    0.19,   1.0, 1.0,      0.0,      135.0,    1.0, 1.05,     0.95,     0.6, 10   ],
		[6.0,    1.0, 0.0,      0.0,      0.0,    0.0,    1.0, 1.0,      0.0,      135.0,    1.0, 1.05,     0.95,     0.6, 10   ],
		[7.0,    1.0, 22.8,     10.9,     0.0,    0.0,    1.0, 1.0,      0.0,      135.0,    1.0, 1.05,     0.95,     0.6, 10   ],
		[8.0,    1.0, 30.0,     30.0,     0.0,    0.0,    1.0, 1.0,      0.0,      135.0,    1.0, 1.05,     0.95,     0.6, 10   ],
		[9.0,    1.0, 0.0,      0.0,      0.0,    0.0,    1.0, 1.0,      0.0,      135.0,    1.0, 1.05,     0.95,     0.6, 10   ],
		[10.0,   1.0, 5.8,      2.0,      0.0,    0.0,    3.0, 1.0,      0.0,      135.0,    1.0, 1.05,     0.95,     0.6, 10   ],
		[11.0,   1.0, 0.0,      0.0,      0.0,    0.0,    1.0, 1.0,      0.0,      135.0,    1.0, 1.05,     0.95,     0.6, 10   ],
		[12.0,   1.0, 11.2,     7.5,      0.0,    0.0,    2.0, 1.0,      0.0,      135.0,    1.0, 1.05,     0.95,     0.6, 10   ],
		[13.0,   2.0, 0.0,      0.0,      0.0,    0.0,    2.0, 1.0,      0.0,      135.0,    1.0, 1.1,      0.95,     0.6, 10   ],
		[14.0,   1.0, 6.2,      1.6,      0.0,    0.0,    2.0, 1.0,      0.0,      135.0,    1.0, 1.05,     0.95,     0.6, 10   ],
		[15.0,   1.0, 8.2,      2.5,      0.0,    0.0,    2.0, 1.0,      0.0,      135.0,    1.0, 1.05,     0.95,     0.6, 10   ],
		[16.0,   1.0, 3.5,      1.8,      0.0,    0.0,    2.0, 1.0,      0.0,      135.0,    1.0, 1.05,     0.95,     0.6, 10   ],
		[17.0,   1.0, 9.0,      5.8,      0.0,    0.0,    2.0, 1.0,      0.0,      135.0,    1.0, 1.05,     0.95,     0.6, 10   ],
		[18.0,   1.0, 3.2,      0.9,      0.0,    0.0,    2.0, 1.0,      0.0,      135.0,    1.0, 1.05,     0.95,     0.6, 10   ],
		[19.0,   1.0, 9.5,      3.4,      0.0,    0.0,    2.0, 1.0,      0.0,      135.0,    1.0, 1.05,     0.95,     0.6, 10   ],
		[20.0,   1.0, 2.2,      0.7,      0.0,    0.0,    2.0, 1.0,      0.0,      135.0,    1.0, 1.05,     0.95,     0.6, 10   ],
		[21.0,   1.0, 17.5,     11.2,     0.0,    0.0,    3.0, 1.0,      0.0,      135.0,    1.0, 1.05,     0.95,     0.6, 10   ],
		[22.0,   2.0, 0.0,      0.0,      0.0,    0.0,    3.0, 1.0,      0.0,      135.0,    1.0, 1.1,      0.95,     0.6, 10   ],
		[23.0,   2.0, 3.2,      1.6,      0.0,    0.0,    2.0, 1.0,      0.0,      135.0,    1.0, 1.1,      0.95,     0.6, 10   ],
		[24.0,   1.0, 8.7,      6.7,      0.0,    0.04,   3.0, 1.0,      0.0,      135.0,    1.0, 1.05,     0.95,     0.6, 10   ],
		[25.0,   1.0, 0.0,      0.0,      0.0,    0.0,    3.0, 1.0,      0.0,      135.0,    1.0, 1.05,     0.95,     0.6, 10   ],
		[26.0,   1.0, 3.5,      2.3,      0.0,    0.0,    3.0, 1.0,      0.0,      135.0,    1.0, 1.05,     0.95,     0.6, 10   ],
		[27.0,   2.0, 0.0,      0.0,      0.0,    0.0,    3.0, 1.0,      0.0,      135.0,    1.0, 1.1,      0.95,     0.6, 10   ],
		[28.0,   1.0, 0.0,      0.0,      0.0,    0.0,    1.0, 1.0,      0.0,      135.0,    1.0, 1.05,     0.95,     0.6, 10   ],
		[29.0,   1.0, 2.4,      0.9,      0.0,    0.0,    3.0, 1.0,      0.0,      135.0,    1.0, 1.05,     0.95,     0.6, 10   ],
		[30.0,   1.0, 10.6,     1.9,      0.0,    0.0,    3.0, 1.0,      0.0,      135.0,    1.0, 1.05,     0.95,     0.6, 10   ]
	])
	ppc["gen"] = array([
		[1.0,    23.54,    0.0,      150.0,    -20.0,    1.0,      100.0,  1.0, 80.0,     0.0,      0, 0, 0, 0, 0, 0, 0, 0, 0, 0, 0, 24.0,     32.0      ],
		[2.0,    60.97,    0.0,      60.0,     -20.0,    1.0,      100.0,  1.0, 80.0,     0.0,      0, 0, 0, 0, 0, 0, 0, 0, 0, 0, 0, 24.0,     32.0      ],
		[22.0,   21.59,    0.0,      62.5,     -15.0,    1.0,      100.0,  1.0, 50.0,     0.0,      0, 0, 0, 0, 0, 0, 0, 0, 0, 0, 0, 15.0,     20.0      ],
		[27.0,   26.91,    0.0,      48.7,     -15.0,    1.0,      100.0,  1.0, 55.0,     0.0,      0, 0, 0, 0, 0, 0, 0, 0, 0, 0, 0, 16.5,     22.0      ],
		[23.0,   19.2,     0.0,      40.0,     -10.0,    1.0,      100.0,  1.0, 30.0,     0.0,      0, 0, 0, 0, 0, 0, 0, 0, 0, 0, 0, 9.0,      12.0      ],
		[13.0,   37.0,     0.0,      44.7,     -15.0,    1.0,      100.0,  1.0, 40.0,     0.0,      0, 0, 0, 0, 0, 0, 0, 0, 0, 0, 0, 12.0,     16.0      ]
	])
	ppc["branch"] = array([
		[1.0,    2.0,    0.02,          0.06,          0.03,          130.0,  130.0,130.0,0.0,    0.0,1.0,-360.0, 360.0,  0.1     ],
		[1.0,    3.0,    0.05,          0.19,          0.02,          130.0,  130.0,130.0,0.0,    0.0,1.0,-360.0, 360.0,  0.1     ],
		[2.0,    4.0,    0.06,          0.17,          0.02,          65.0,   65.0,65.0,0.0,    0.0,1.0,-360.0, 360.0,  0.1     ],
		[3.0,    4.0,    0.01,          0.04,          0.0,           130.0,  130.0,130.0,0.0,    0.0,1.0,-360.0, 360.0,  0.1     ],
		[2.0,    5.0,    0.05,          0.2,           0.02,          130.0,  130.0,130.0,0.0,    0.0,1.0,-360.0, 360.0,  0.1     ],
		[2.0,    6.0,    0.06,          0.18,          0.02,          65.0,   65.0,65.0,0.0,    0.0,1.0,-360.0, 360.0,  0.1     ],
		[4.0,    6.0,    0.01,          0.04,          0.0,           90.0,   90.0,90.0,0.0,    0.0,1.0,-360.0, 360.0,  0.1     ],
		[5.0,    7.0,    0.05,          0.12,          0.01,          70.0,   70.0,70.0,0.0,    0.0,1.0,-360.0, 360.0,  0.1     ],
		[6.0,    7.0,    0.03,          0.08,          0.01,          130.0,  130.0,130.0,0.0,    0.0,1.0,-360.0, 360.0,  0.1     ],
		[6.0,    8.0,    0.01,          0.04,          0.0,           32.0,   32.0,32.0,0.0,    0.0,1.0,-360.0, 360.0,  0.1     ],
		[6.0,    9.0,    0.0,           0.21,          0.0,           65.0,   65.0,65.0,0.0,    0.0,1.0,-360.0, 360.0,  0.1     ],
		[6.0,    10.0,   0.0,           0.56,          0.0,           32.0,   32.0,32.0,0.0,    0.0,1.0,-360.0, 360.0,  0.1     ],
		[9.0,    11.0,   0.0,           0.21,          0.0,           65.0,   65.0,65.0,0.0,    0.0,1.0,-360.0, 360.0,  0.1     ],
		[9.0,    10.0,   0.0,           0.11,          0.0,           65.0,   65.0,65.0,0.0,    0.0,1.0,-360.0, 360.0,  0.1     ],
		[4.0,    12.0,   0.0,           0.26,          0.0,           65.0,   65.0,65.0,0.0,    0.0,1.0,-360.0, 360.0,  0.1     ],
		[12.0,   13.0,   0.0,           0.14,          0.0,           65.0,   65.0,65.0,0.0,    0.0,1.0,-360.0, 360.0,  0.1     ],
		[12.0,   14.0,   0.12,          0.26,          0.0,           32.0,   32.0,32.0,0.0,    0.0,1.0,-360.0, 360.0,  0.1     ],
		[12.0,   15.0,   0.07,          0.13,          0.0,           32.0,   32.0,32.0,0.0,    0.0,1.0,-360.0, 360.0,  0.1     ],
		[12.0,   16.0,   0.09,          0.2,           0.0,           32.0,   32.0,32.0,0.0,    0.0,1.0,-360.0, 360.0,  0.1     ],
		[14.0,   15.0,   0.22,          0.2,           0.0,           16.0,   16.0,16.0,0.0,    0.0,1.0,-360.0, 360.0,  0.1     ],
		[16.0,   17.0,   0.08,          0.19,          0.0,           16.0,   16.0,16.0,0.0,    0.0,1.0,-360.0, 360.0,  0.1     ],
		[15.0,   18.0,   0.11,          0.22,          0.0,           16.0,   16.0,16.0,0.0,    0.0,1.0,-360.0, 360.0,  0.1     ],
		[18.0,   19.0,   0.06,          0.13,          0.0,           16.0,   16.0,16.0,0.0,    0.0,1.0,-360.0, 360.0,  0.1     ],
		[19.0,   20.0,   0.03,          0.07,          0.0,           32.0,   32.0,32.0,0.0,    0.0,1.0,-360.0, 360.0,  0.1     ],
		[10.0,   20.0,   0.09,          0.21,          0.0,           32.0,   32.0,32.0,0.0,    0.0,1.0,-360.0, 360.0,  0.1     ],
		[10.0,   17.0,   0.03,          0.08,          0.0,           32.0,   32.0,32.0,0.0,    0.0,1.0,-360.0, 360.0,  0.1     ],
		[10.0,   21.0,   0.03,          0.07,          0.0,           32.0,   32.0,32.0,0.0,    0.0,1.0,-360.0, 360.0,  0.1     ],
		[10.0,   22.0,   0.07,          0.15,          0.0,           32.0,   32.0,32.0,0.0,    0.0,1.0,-360.0, 360.0,  0.1     ],
		[21.0,   22.0,   0.01,          0.02,          0.0,           32.0,   32.0,32.0,0.0,    0.0,1.0,-360.0, 360.0,  0.1     ],
		[15.0,   23.0,   0.1,           0.2,           0.0,           16.0,   16.0,16.0,0.0,    0.0,1.0,-360.0, 360.0,  0.1     ],
		[22.0,   24.0,   0.12,          0.18,          0.0,           16.0,   16.0,16.0,0.0,    0.0,1.0,-360.0, 360.0,  0.1     ],
		[23.0,   24.0,   0.13,          0.27,          0.0,           16.0,   16.0,16.0,0.0,    0.0,1.0,-360.0, 360.0,  0.1     ],
		[24.0,   25.0,   0.19,          0.33,          0.0,           16.0,   16.0,16.0,0.0,    0.0,1.0,-360.0, 360.0,  0.1     ],
		[25.0,   26.0,   0.25,          0.38,          0.0,           16.0,   16.0,16.0,0.0,    0.0,1.0,-360.0, 360.0,  0.1     ],
		[25.0,   27.0,   0.11,          0.21,          0.0,           16.0,   16.0,16.0,0.0,    0.0,1.0,-360.0, 360.0,  0.1     ],
		[28.0,   27.0,   0.0,           0.4,           0.0,           65.0,   65.0,65.0,0.0,    0.0,1.0,-360.0, 360.0,  0.1     ],
		[27.0,   29.0,   0.22,          0.42,          0.0,           16.0,   16.0,16.0,0.0,    0.0,1.0,-360.0, 360.0,  0.1     ],
		[27.0,   30.0,   0.32,          0.6,           0.0,           16.0,   16.0,16.0,0.0,    0.0,1.0,-360.0, 360.0,  0.1     ],
		[29.0,   30.0,   0.24,          0.45,          0.0,           16.0,   16.0,16.0,0.0,    0.0,1.0,-360.0, 360.0,  0.1     ],
		[8.0,    28.0,   0.06,          0.2,           0.02,          32.0,   32.0,32.0,0.0,    0.0,1.0,-360.0, 360.0,  0.1     ],
		[6.0,    28.0,   0.02,          0.06,          0.01,          32.0,   32.0,32.0,0.0,    0.0,1.0,-360.0, 360.0,  0.1     ]
	])
	ppc["gencost"] = array([
		[2.0, 0.0, 0.0, 3.0, 0.02,2.0,    0.0,    2.4,    1.2     ],
		[2.0, 0.0, 0.0, 3.0, 0.0175,1.75,   0.0,    2.1,    1.05    ],
		[2.0, 0.0, 0.0, 3.0, 0.0625,1.0,    0.0,    1.2,    0.6     ],
		[2.0, 0.0, 0.0, 3.0, 0.00834,3.25,   0.0,    3.9,    1.95    ],
		[2.0, 0.0, 0.0, 3.0, 0.025,3.0,    0.0,    3.5999999999999996,1.7999999999999998],
		[2.0, 0.0, 0.0, 3.0, 0.025,3.0,    0.0,    3.5999999999999996,1.7999999999999998]
	])
	
	return ppc